Circuit: * \\netapp2\adjasse-aben\4AGP\PROJET_CAPTEUR\LT\Draft3.asc

